version 2
1
9
.tran 100u 500u 0{return}.kicad adjustpaths{return}.save all{return}.probe alli
2
2
I(R2)
 
1
V(Net-_Q1-D_)
 
